@<TRIPOS>MOLECULE
guest2
   33    34     0     0     0
SMALL
NO_CHARGES

@<TRIPOS>ATOM
      1 O1          0.0000    0.0000    0.0000 O.3       1 <0>         0.0000
      2 C1          0.0000    0.0000    0.0000 C.3       1 <0>         0.0000
      3 C2          0.0000    0.0000    0.0000 C.3       1 <0>         0.0000
      4 C3          0.0000    0.0000    0.0000 C.3       1 <0>         0.0000
      5 C4          0.0000    0.0000    0.0000 C.3       1 <0>         0.0000
      6 C5          0.0000    0.0000    0.0000 C.3       1 <0>         0.0000
      7 C6          0.0000    0.0000    0.0000 C.3       1 <0>         0.0000
      8 C7          0.0000    0.0000    0.0000 C.3       1 <0>         0.0000
      9 C8          0.0000    0.0000    0.0000 C.3       1 <0>         0.0000
     10 C9          0.0000    0.0000    0.0000 C.3       1 <0>         0.0000
     11 C10         0.0000    0.0000    0.0000 C.3       1 <0>         0.0000
     12 C11         0.0000    0.0000    0.0000 C.3       1 <0>         0.0000
     13 O2          0.0000    0.0000    0.0000 O.3       1 <0>         0.0000
     14 H1          0.0000    0.0000    0.0000 H         1 <0>         0.0000
     15 H2          0.0000    0.0000    0.0000 H         1 <0>         0.0000
     16 H3          0.0000    0.0000    0.0000 H         1 <0>         0.0000
     17 H4          0.0000    0.0000    0.0000 H         1 <0>         0.0000
     18 H5          0.0000    0.0000    0.0000 H         1 <0>         0.0000
     19 H6          0.0000    0.0000    0.0000 H         1 <0>         0.0000
     20 H7          0.0000    0.0000    0.0000 H         1 <0>         0.0000
     21 H8          0.0000    0.0000    0.0000 H         1 <0>         0.0000
     22 H9          0.0000    0.0000    0.0000 H         1 <0>         0.0000
     23 H10         0.0000    0.0000    0.0000 H         1 <0>         0.0000
     24 H11         0.0000    0.0000    0.0000 H         1 <0>         0.0000
     25 H12         0.0000    0.0000    0.0000 H         1 <0>         0.0000
     26 H13         0.0000    0.0000    0.0000 H         1 <0>         0.0000
     27 H14         0.0000    0.0000    0.0000 H         1 <0>         0.0000
     28 H15         0.0000    0.0000    0.0000 H         1 <0>         0.0000
     29 H16         0.0000    0.0000    0.0000 H         1 <0>         0.0000
     30 H17         0.0000    0.0000    0.0000 H         1 <0>         0.0000
     31 H18         0.0000    0.0000    0.0000 H         1 <0>         0.0000
     32 H19         0.0000    0.0000    0.0000 H         1 <0>         0.0000
     33 H20         0.0000    0.0000    0.0000 H         1 <0>         0.0000
@<TRIPOS>BOND
     1    2    3 1
     2    1    2 1
     3    4    5 1
     4    5    6 1
     5    6    7 1
     6    7    8 1
     7    8    9 1
     8   10   11 1
     9    4    9 1
    10    4   10 1
    11    7   11 1
    12    2    7 1
    13   12   13 1
    14    4   12 1
    15    1   14 1
    16    2   15 1
    17    3   16 1
    18    3   17 1
    19    3   18 1
    20    5   19 1
    21    5   20 1
    22    6   21 1
    23    6   22 1
    24    8   23 1
    25    8   24 1
    26    9   25 1
    27    9   26 1
    28   10   27 1
    29   10   28 1
    30   11   29 1
    31   11   30 1
    32   12   31 1
    33   12   32 1
    34   13   33 1
@<TRIPOS>MOLECULE
guest1
   30    31     0     0     0
SMALL
USER_CHARGES

@<TRIPOS>ATOM
      1 C1          5.6530    6.9290   18.9420 C.3       1 <0>         1.0000
      2 C2          4.2520    6.9700   18.3070 C.3       1 <0>         1.0000
      3 C3          4.3590    6.6600   16.7920 C.3       1 <0>         1.0000
      4 C4          6.7210    6.9720   17.8190 C.3       1 <0>         1.0000
      5 C5          6.3870    8.1520   16.8670 C.3       1 <0>         1.0000
      6 C6          5.0960    7.8360   16.0970 C.3       1 <0>         1.0000
      7 C7          6.6540    5.6500   17.0130 C.3       1 <0>         1.0000
      8 C8          5.1990    5.3700   16.5990 C.3       1 <0>         1.0000
      9 C9          8.1110    7.1550   18.4530 C.3       1 <0>         1.0000
     10 O1          9.1270    7.4280   17.4610 O.3       1 <0>         1.0000
     11 C10         2.9650    6.4430   16.1760 C.3       1 <0>         1.0000
     12 O2          2.1980    7.6680   16.1310 O.3       1 <0>         1.0000
     13 H1          5.7740    6.0080   19.5410 H         1 <0>         1.0000
     14 H2          5.7820    7.7750   19.6400 H         1 <0>         1.0000
     15 H3          3.5790    6.2520   18.8090 H         1 <0>         1.0000
     16 H4          3.7940    7.9670   18.4490 H         1 <0>         1.0000
     17 H5          7.2250    8.3270   16.1630 H         1 <0>         1.0000
     18 H6          6.2680    9.0820   17.4510 H         1 <0>         1.0000
     19 H7          4.4410    8.7290   16.0550 H         1 <0>         1.0000
     20 H8          5.3280    7.5670   15.0510 H         1 <0>         1.0000
     21 H9          7.0570    4.8080   17.6050 H         1 <0>         1.0000
     22 H10         7.3010    5.7300   16.1180 H         1 <0>         1.0000
     23 H11         5.1570    5.0270   15.5510 H         1 <0>         1.0000
     24 H12         4.7780    4.5530   17.2130 H         1 <0>         1.0000
     25 H13         8.1310    7.9890   19.1820 H         1 <0>         1.0000
     26 H14         8.4620    6.2320   18.9460 H         1 <0>         1.0000
     27 H15         8.8150    8.1730   16.8730 H         1 <0>         1.0000
     28 H16         3.0220    6.0520   15.1410 H         1 <0>         1.0000
     29 H17         2.3460    5.7640   16.7880 H         1 <0>         1.0000
     30 H18         2.7500    8.3790   15.7000 H         1 <0>         1.0000
@<TRIPOS>BOND
     1    6   20 1
     2   11   28 1
     3    8   23 1
     4   12   30 1
     5    6   19 1
     6    3    6 1
     7    5    6 1
     8    7   22 1
     9   11   12 1
    10    5   17 1
    11   11   29 1
    12    3   11 1
    13    3    8 1
    14    7    8 1
    15    8   24 1
    16    2    3 1
    17    5   18 1
    18    4    5 1
    19   10   27 1
    20    7   21 1
    21    4    7 1
    22    9   10 1
    23    4    9 1
    24    1    4 1
    25    2   16 1
    26    2   15 1
    27    1    2 1
    28    9   26 1
    29    9   25 1
    30    1   13 1
    31    1   14 1
