imidazole
                    3D
 Structure written by MMmdl.
  9  9  0  0  1  0            999 V2000
    0.6549   -0.7784   -0.3640 C   0  0  0  0  0  0
    1.9499   -0.7740   -0.8259 C   0  0  0  0  0  0
    2.3537   -2.0366   -1.1813 N   0  0  0  0  0  0
    1.3133   -2.8020   -0.9371 C   0  0  0  0  0  0
    0.2603   -2.0844   -0.4416 N   0  0  0  0  0  0
    0.0003   -0.0000    0.0005 H   0  0  0  0  0  0
    2.6117    0.0744   -0.9217 H   0  0  0  0  0  0
    1.2583   -3.8695   -1.0948 H   0  0  0  0  0  0
   -0.7540   -2.3720   -0.1279 H   0  0  0  0  0  0
  1  5  1  0  0  0
  1  2  2  0  0  0
  1  6  1  0  0  0
  2  3  1  0  0  0
  2  7  1  0  0  0
  3  4  2  0  0  0
  4  5  1  0  0  0
  4  8  1  0  0  0
  5  9  1  0  0  0
M  END
> <s_m_source_file>
/Users/choderaj/github/choderalab/perses/perses.choderalab/perses/data/imidazole/imidazole/imidazole-input.mol2

> <i_m_source_file_index>
1

> <r_lp_tautomer_probability>
0.499999999999999

> <r_epik_Ionization_Penalty>
  0.1010

> <r_epik_Ionization_Penalty_Charging>
  0.1010

> <r_epik_Ionization_Penalty_Neutral>
  0.0000

> <r_epik_State_Penalty>
  0.0910

> <i_epik_Tot_Q>
0

$$$$
imidazole
                    3D
 Structure written by MMmdl.
 10 10  0  0  1  0            999 V2000
    0.6549   -0.7784   -0.3640 C   0  0  0  0  0  0
    1.9499   -0.7740   -0.8259 C   0  0  0  0  0  0
    2.3537   -2.0366   -1.1813 N   0  3  0  0  0  0
    1.3133   -2.8020   -0.9371 C   0  0  0  0  0  0
    0.2603   -2.0844   -0.4416 N   0  0  0  0  0  0
    0.0003   -0.0000    0.0005 H   0  0  0  0  0  0
    2.6117    0.0744   -0.9217 H   0  0  0  0  0  0
    1.2583   -3.8695   -1.0948 H   0  0  0  0  0  0
   -0.7540   -2.3720   -0.1279 H   0  0  0  0  0  0
    3.3691   -2.1998   -1.5717 H   0  0  0  0  0  0
  1  5  1  0  0  0
  1  2  2  0  0  0
  1  6  1  0  0  0
  2  3  1  0  0  0
  2  7  1  0  0  0
  3  4  2  0  0  0
  3 10  1  0  0  0
  4  5  1  0  0  0
  4  8  1  0  0  0
  5  9  1  0  0  0
M  CHG  1   3   1
M  END
> <s_m_source_file>
/Users/choderaj/github/choderalab/perses/perses.choderalab/perses/data/imidazole/imidazole/imidazole-input.mol2

> <i_m_source_file_index>
1

> <r_lp_tautomer_probability>
1

> <r_epik_Ionization_Penalty>
  1.0983

> <r_epik_Ionization_Penalty_Charging>
  0.0000

> <r_epik_Ionization_Penalty_Neutral>
  1.0983

> <r_epik_State_Penalty>
  1.1552

> <i_epik_Tot_Q>
1

$$$$
